<?xml version="1.0" encoding="UTF-8"?>

<!-- generated on 2022-05-03 13:07:53 by Eclipse SUMO GUI Version 1.12.0
-->

<configuration xmlns:xsi="http://www.w3.org/2001/XMLSchema-instance" xsi:noNamespaceSchemaLocation="http://sumo.dlr.de/xsd/sumoConfiguration.xsd">

    <input>
        <net-file value="/Users/julesdehon/Documents/Uni/year-3/individual-project/Simulations/DuckieIntersectionSimulation/intersection_control/environments/sumo/networks/single_road/single_road.net.xml"/>
        <route-files value="/Users/julesdehon/Documents/Uni/year-3/individual-project/Simulations/DuckieIntersectionSimulation/intersection_control/environments/sumo/networks/single_road/single_road.rou.xml"/>
    </input>

</configuration>
